/*--------------------------------*- C++ -*----------------------------------*\
| =========                 |                                                 |
| \\      /  F ield         | OpenFOAM: The Open Source CFD Toolbox           |
|  \\    /   O peration     | Version:  v2312                                 |
|   \\  /    A nd           | Website:  www.openfoam.com                      |
|    \\/     M anipulation  |                                                 |
\*---------------------------------------------------------------------------*/
FoamFile
{
    version     2.0;
    format      ascii;
    class       dictionary;
    object      blockMeshDict;
}
// * * * * * * * * * * * * * * * * * * * * * * * * * * * * * * * * * * * * * //

// Auto-generated square-channel blockMeshDict with the required 9-block topology
// wall_mode                  = solved_n__fixed_cell_ratio
// outer_side                 = 0.062
// blue_core_side             = 0.05156
// wall_thickness             = 0.005219999999999999
// U_bulk                     = 20.0
// nu                         = 1.86e-05
// y_plus_wall                = 0.35
// Re_bulk                    = 66666.66666666666
// cf_bulk                    = 0.004543030734205891
// darcy_lambda               = 0.018172122936823566
// u_tau                      = 0.9532083438793316
// first_wall_cell_center     = 6.829566738270299e-06
// first_wall_cell_thickness  = 1.3659133476540599e-05
// wall_c2c_ratio             = 1.1
// wall_total_ratio           = 34.00394858615784
// wall_end_cell              = 0.00046446447246775393
// wall_total_check           = 0.004972517862379883
// nx                         = 372
// n_wall                     = 38
// n_core                     = 103

scale   1;

vertices
(
    (0 0 0) //0
    (1e-07 1e-07 1e-07) //1
    (0 0.031000 -0.031000) //2
    (0 0.025780 -0.031000) //3
    (0 0.025780 -0.025780) //4
    (0 0.031000 -0.025780) //5
    (0 0.025780 -0.031000) //6
    (0 -0.025780 -0.031000) //7
    (0 -0.025780 -0.025780) //8
    (0 0.025780 -0.025780) //9
    (0 -0.025780 -0.031000) //10
    (0 -0.031000 -0.031000) //11
    (0 -0.031000 -0.025780) //12
    (0 -0.025780 -0.025780) //13
    (0 -0.025780 -0.025780) //14
    (0 -0.031000 -0.025780) //15
    (0 -0.031000 0.025780) //16
    (0 -0.025780 0.025780) //17
    (0 -0.025780 0.025780) //18
    (0 -0.031000 0.025780) //19
    (0 -0.031000 0.031000) //20
    (0 -0.025780 0.031000) //21
    (0 0.025780 0.025780) //22
    (0 -0.025780 0.025780) //23
    (0 -0.025780 0.031000) //24
    (0 0.025780 0.031000) //25
    (0 0.031000 0.025780) //26
    (0 0.025780 0.025780) //27
    (0 0.025780 0.031000) //28
    (0 0.031000 0.031000) //29
    (0 0.031000 -0.025780) //30
    (0 0.025780 -0.025780) //31
    (0 0.025780 0.025780) //32
    (0 0.031000 0.025780) //33
    (0.186000 0.031000 -0.031000) //34
    (0.186000 0.025780 -0.031000) //35
    (0.186000 0.025780 -0.025780) //36
    (0.186000 0.031000 -0.025780) //37
    (0.186000 0.025780 -0.031000) //38
    (0.186000 -0.025780 -0.031000) //39
    (0.186000 -0.025780 -0.025780) //40
    (0.186000 0.025780 -0.025780) //41
    (0.186000 -0.025780 -0.031000) //42
    (0.186000 -0.031000 -0.031000) //43
    (0.186000 -0.031000 -0.025780) //44
    (0.186000 -0.025780 -0.025780) //45
    (0.186000 -0.025780 -0.025780) //46
    (0.186000 -0.031000 -0.025780) //47
    (0.186000 -0.031000 0.025780) //48
    (0.186000 -0.025780 0.025780) //49
    (0.186000 -0.025780 0.025780) //50
    (0.186000 -0.031000 0.025780) //51
    (0.186000 -0.031000 0.031000) //52
    (0.186000 -0.025780 0.031000) //53
    (0.186000 0.025780 0.025780) //54
    (0.186000 -0.025780 0.025780) //55
    (0.186000 -0.025780 0.031000) //56
    (0.186000 0.025780 0.031000) //57
    (0.186000 0.031000 0.025780) //58
    (0.186000 0.025780 0.025780) //59
    (0.186000 0.025780 0.031000) //60
    (0.186000 0.031000 0.031000) //61
    (0.186000 0.031000 -0.025780) //62
    (0.186000 0.025780 -0.025780) //63
    (0.186000 0.025780 0.025780) //64
    (0.186000 0.031000 0.025780) //65
    (0 0.025780 -0.025780) //66
    (0 -0.025780 -0.025780) //67
    (0 -0.025780 0.025780) //68
    (0 0.025780 0.025780) //69
    (0.186000 0.025780 -0.025780) //70
    (0.186000 -0.025780 -0.025780) //71
    (0.186000 -0.025780 0.025780) //72
    (0.186000 0.025780 0.025780) //73
);

blocks
(
    hex (5 37 36 4 2 34 35 3 ) (372 38 38) simpleGrading (1 34.003949 0.029408)
    hex (9 41 40 8 6 38 39 7) (372 103 38) simpleGrading (1 1 0.029408)
    hex (29 61 60 28 26 58 59 27) (372 38 38) simpleGrading (1 34.003949 34.003949)
    hex (25 57 56 24 22 54 55 23) (372 103 38) simpleGrading (1 1 34.003949)
    hex (13 45 44 12 10 42 43 11 ) (372 38 38) simpleGrading (1 0.029408 0.029408)
    hex (21 53 52 20 18 50 51 19 ) (372 38 38) simpleGrading (1 0.029408 34.003949)
    hex (17 49 48 16 14 46 47 15) (372 38 103) simpleGrading (1 0.029408 1)
    hex (33 65 64 32 30 62 63 31 ) (372 38 103) simpleGrading (1 34.003949 1)
    hex (69 73 72 68 66 70 71 67) (372 103 103) simpleGrading (1 1 1)
);

boundary
(
    bottom
    {
        type            wall;
        faces           ((11 43 44 12)(15 47 48 16)(19 51 52 20));
    }
    top
    {
        type            wall;
        faces           ((2 34 37 5)(30 62 65 33)(26 58 61 29));
    }
    left
    {
        type            wall;
        neighbourPatch  right;
        faces           ((2 3 35 34)(6 7 39 38) (10 11 43 42));
    }
    right
    {
        type            wall;
        neighbourPatch  left;
        faces           ((29 61 60 28)(25 57 56 24)(21 53 52 20));
    }
    inlet
    {
        type            cyclic;
        neighbourPatch  outlet;
        faces           ((2 3 4 5)(6 7 8 9)(10 11 12 13)(14 15 16 17)(18 19 20 21)(22 23 24 25)(26 27 28 29)(30 31 32 33)(66 67 68 69));
    }
    outlet
    {
        type            cyclic;
        neighbourPatch  inlet;
        faces           ((34 35 36 37)(38 39 40 41)(42 43 44 45)(46 47 48 49)(50 51 52 53)(54 55 56 57)(58 59 60 61)(62 63 64 65)(70 71 72 73));
    }

    interface1
    {
        type    empty;
        faces   ((5 37 36 4));
    }
    interface2
    {
        type    empty;
        faces   ((30 31 63 62));
    }
    interface3
    {
        type    empty;
        faces   ((33 65 64 32));
    }
    interface4
    {
        type    empty;
        faces   ((26 27 59 58));
    }
    interface5
    {
        type    empty;
        faces   ((3 4 36 35));
    }
    interface6
    {
        type    empty;
        faces   ((38 41 9 6));
    }
    interface7
    {
        type    empty;
        faces   ((31 32 64 63));
    }
    interface8
    {
        type    empty;
        faces   ((70 73 69 66));
    }
    interface9
    {
        type    empty;
        faces   ((27 28 60 59));
    }
    interface10
    {
        type    empty;
        faces   ((22 54 57 25));
    }
    interface11
    {
        type    empty;
        faces   ((9 41 40 8));
    }
    interface12
    {
        type    empty;
        faces   ((66 67 71 70));
    }
    interface13
    {
        type    empty;
        faces   ((69 73 72 68));
    }
    interface14
    {
        type    empty;
        faces   ((22 23 55 54));
    }
    interface15
    {
        type    empty;
        faces   ((7 8 40 39));
    }
    interface16
    {
        type    empty;
        faces   ((10 42 45 13));
    }
    interface17
    {
        type    empty;
        faces   ((67 68 72 71));
    }
    interface18
    {
        type    empty;
        faces   ((14 46 49 17));
    }
    interface19
    {
        type    empty;
        faces   ((23 24 56 55));
    }
    interface20
    {
        type    empty;
        faces   ((18 50 53 21));
    }
    interface21
    {
        type    empty;
        faces   ((13 45 44 12));
    }
    interface22
    {
        type    empty;
        faces   ((14 15 47 46));
    }
    interface23
    {
        type    empty;
        faces   ((17 49 48 16));
    }
    interface24
    {
        type    empty;
        faces   ((18 19 51 50));
    }
);
mergePatchPairs
(
    (interface1 interface2)
    (interface3 interface4)
    (interface5 interface6)
    (interface7 interface8)
    (interface9 interface10)
    (interface11 interface12)
    (interface13 interface14)
    (interface15 interface16)
    (interface17 interface18)
    (interface19 interface20)
    (interface21 interface22)
    (interface23 interface24)
);

// ************************************************************************* //